electric-grid/physical/synthetic/synAustinTD/models/syn-austin-D_only-v03/P2U/base/opendss/p2uhs5_1247/Master.dss
Clear

New Circuit.substation_p2uhs5_69 bus1=p2uhs5_69 pu=1.0 basekV=69.0 R1=1e-05 X1=1e-05 R0=1e-05 X0=1e-05

Redirect p2uhs5_1247--p2udt2008/Transformers.dss
Redirect Transformers.dss
Redirect p2uhs5_1247--p2udt7035/Transformers.dss
Redirect p2uhs5_1247--p2udt7295/Transformers.dss
Redirect Regulators.dss
Redirect p2uhs5_1247--p2udt2008/Loads.dss
Redirect p2uhs5_1247--p2udt7035/Loads.dss
Redirect p2uhs5_1247--p2udt7295/Loads.dss
Redirect p2uhs5_1247--p2udt2008/LineCodes.dss
Redirect LineCodes.dss
Redirect p2uhs5_1247--p2udt7035/LineCodes.dss
Redirect p2uhs5_1247--p2udt7295/LineCodes.dss
Redirect p2uhs5_1247--p2udt2008/Lines.dss
Redirect Lines.dss
Redirect p2uhs5_1247--p2udt7035/Lines.dss
Redirect p2uhs5_1247--p2udt7295/Lines.dss
Redirect p2uhs5_1247--p2udt2008/Capacitors.dss
Redirect p2uhs5_1247--p2udt7035/Capacitors.dss

Set Voltagebases=[0.2080002494301389, 0.48, 7.199560000000001, 12.47, 69.0]

Calcvoltagebases

Buscoords Buscoords.dss

Solve